AMOSTRA/TUM/Linhas.dss
! ==========================================================
! LINHAS — geradas de SSDMT
! Barras = PAC_1 / PAC_2 da BDGD (preservados)
! ==========================================================
New Line.12786_14783902 Bus1=12786-12181646.1.2.3 Bus2=12786-12181644.1.2.3 LineCode=CND_M30_42_3F Length=29.75 Units=m
New Line.12786_14783907 Bus1=12786-12181644.1.2.3 Bus2=12786-12181643.1.2.3 LineCode=CND_M30_42_3F Length=49.74 Units=m
New Line.16342_13187812 Bus1=16342-11120290.2 Bus2=16342-11101668.2 LineCode=CND_M10_89_1F Length=113.49 Units=m
New Line.16342_13187815 Bus1=16342-11117240c.2 Bus2=16342-11104856.2 LineCode=CND_M10_89_1F Length=98.25 Units=m
New Line.16342_13187816 Bus1=16342-11104856.2 Bus2=16342-11113970.2 LineCode=CND_M10_89_1F Length=98.90 Units=m
New Line.16342_13187817 Bus1=16342-11113970.2 Bus2=16342-11117242.2 LineCode=CND_M10_89_1F Length=84.08 Units=m
New Line.16342_13187818 Bus1=16342-11117242.2 Bus2=16342-11102272.2 LineCode=CND_M10_89_1F Length=67.07 Units=m
New Line.16342_13187819 Bus1=16342-11117242.2 Bus2=16342-11102273.2 LineCode=CND_M10_89_1F Length=99.44 Units=m
New Line.16342_13187821 Bus1=16342-11117243.2 Bus2=16342-11107615.2 LineCode=CND_M10_89_1F Length=109.73 Units=m
New Line.16342_13187822 Bus1=16342-11107615.2 Bus2=16342-11123459.2 LineCode=CND_M10_89_1F Length=111.46 Units=m
New Line.16342_13187826 Bus1=16342-11117244.2 Bus2=16342-11110865.2 LineCode=CND_M10_89_1F Length=105.90 Units=m
New Line.16342_13187829 Bus1=16342-11120291.2 Bus2=16342-11113971.2 LineCode=CND_M10_89_1F Length=115.55 Units=m
New Line.16342_13187830 Bus1=16342-11113971.2 Bus2=16342-11123460.2 LineCode=CND_M10_89_1F Length=123.64 Units=m
New Line.16342_13187831 Bus1=16342-11123460c.2 Bus2=16342-11111234.2 LineCode=CND_M10_89_1F Length=59.18 Units=m
New Line.16342_13187832 Bus1=16342-11123460.2 Bus2=16342-11123461.2 LineCode=CND_M10_89_1F Length=72.03 Units=m
New Line.16342_13187834 Bus1=16342-11117245c.2 Bus2=16342-11114378.2 LineCode=CND_M10_89_1F Length=13.37 Units=m
New Line.16342_13187838 Bus1=16342-11117247c.2 Bus2=16342-11102275.2 LineCode=CND_M10_89_1F Length=64.76 Units=m
New Line.16342_13187839 Bus1=16342-11117247.2 Bus2=16342-11113973.2 LineCode=CND_M10_89_1F Length=83.53 Units=m
New Line.16342_13187840 Bus1=16342-11113973.2 Bus2=16342-11104858.2 LineCode=CND_M10_89_1F Length=133.92 Units=m
New Line.16342_13187843 Bus1=16342-11104862c.3 Bus2=16342-11120812.3 LineCode=CND_M10_89_1F Length=36.01 Units=m
New Line.16342_13187847 Bus1=16342-11117254c.3 Bus2=16342-11123824.3 LineCode=CND_M10_89_1F Length=10.23 Units=m
New Line.16342_13187848 Bus1=16342-11117254.3 Bus2=16342-11101670.3 LineCode=CND_M10_89_1F Length=96.94 Units=m
New Line.25203_13188952 Bus1=25203-11114152.1.2.3 Bus2=25203-11117310.1.2.3 LineCode=CND_M30_89_3F Length=69.79 Units=m
New Line.25203_13188953 Bus1=25203-11123534.1.2.3 Bus2=25203-11114152.1.2.3 LineCode=CND_M30_89_3F Length=84.58 Units=m
New Line.25203_13188955 Bus1=25203-11107849.1.2.3 Bus2=25203-11123534.1.2.3 LineCode=CND_M30_89_3F Length=84.58 Units=m
New Line.25203_13188956 Bus1=25203-11120447.1.2.3 Bus2=25203-11107849.1.2.3 LineCode=CND_M30_89_3F Length=71.20 Units=m
New Line.25203_13188962 Bus1=25203-11120449.1.2.3 Bus2=25203-11110943.1.2.3 LineCode=CND_M30_89_3F Length=109.29 Units=m
New Line.25203_13188963 Bus1=25203-11120451.1.2.3 Bus2=25203-11120450.1.2.3 LineCode=CND_M30_89_3F Length=88.79 Units=m
New Line.25203_13188969 Bus1=25203-11117394.1.2.3 Bus2=25203-11120559.1.2.3 LineCode=CND_M30_89_3F Length=72.34 Units=m
New Line.25203_13188971 Bus1=25203-11107879.1.2.3 Bus2=25203-11117394.1.2.3 LineCode=CND_M30_89_3F Length=102.00 Units=m
New Line.25203_13188974 Bus1=25203-11107880.1.2.3 Bus2=25203-11107881.1.2.3 LineCode=CND_M30_89_3F Length=157.16 Units=m
New Line.25203_13188976 Bus1=25203-11114234.1.2.3 Bus2=25203-11114233.1.2.3 LineCode=CND_M30_89_3F Length=102.01 Units=m
New Line.25203_13188977 Bus1=25203-11107881.1.2.3 Bus2=25203-11117395.1.2.3 LineCode=CND_M30_89_3F Length=103.78 Units=m
New Line.25203_13188978 Bus1=25203-11120561.1.2.3 Bus2=25203-11114234.1.2.3 LineCode=CND_M30_89_3F Length=102.00 Units=m
New Line.25203_13188979 Bus1=25203-11117395.1.2.3 Bus2=25203-11101756.1.2.3 LineCode=CND_M30_89_3F Length=101.47 Units=m
New Line.25203_13188983 Bus1=25203-11117396.1.2.3 Bus2=25203-11114235.1.2.3 LineCode=CND_M30_89_3F Length=102.01 Units=m
New Line.25203_13188986 Bus1=25203-11120563.1.2.3 Bus2=25203-11120565.1.2.3 LineCode=CND_M30_89_3F Length=101.07 Units=m
New Line.25203_13189110 Bus1=25203-11102113.1.2.3 Bus2=25203-11111035.1.2.3 LineCode=CND_M30_89_3F Length=102.00 Units=m
New Line.25203_13189111 Bus1=25203-11114174.1.2.3 Bus2=25203-11102113.1.2.3 LineCode=CND_M30_89_3F Length=102.00 Units=m
New Line.25203_13189113 Bus1=25203-11107809.1.2.3 Bus2=25203-11120575.1.2.3 LineCode=CND_M30_89_3F Length=102.00 Units=m
New Line.25203_13189115 Bus1=25203-11120577.1.2.3 Bus2=25203-11120576.1.2.3 LineCode=CND_M30_89_3F Length=102.00 Units=m
New Line.25203_13189117 Bus1=25203-11120575.1.2.3 Bus2=25203-11111036.1.2.3 LineCode=CND_M30_89_3F Length=102.00 Units=m
New Line.25203_13189118 Bus1=25203-11110978.1.2.3 Bus2=25203-11110977.1.2.3 LineCode=CND_M30_89_3F Length=102.00 Units=m
New Line.25203_13189119 Bus1=25203-11111039.1.2.3 Bus2=25203-11114178.1.2.3 LineCode=CND_M30_89_3F Length=102.00 Units=m
New Line.25203_13189123 Bus1=25203-11107815.1.2.3 Bus2=25203-11120486.1.2.3 LineCode=CND_M30_89_3F Length=88.19 Units=m
New Line.25203_13189128 Bus1=25203-11123606.1.2.3 Bus2=25203-11117344.1.2.3 LineCode=CND_M30_89_3F Length=44.07 Units=m
New Line.25203_13189134 Bus1=25203-11106032.1 Bus2=25203-11117657.1 LineCode=CND_M10_89_1F Length=102.51 Units=m
New Line.25203_13189135 Bus1=25203-11118767.2 Bus2=25203-11102427.2 LineCode=CND_M10_89_1F Length=68.66 Units=m
New Line.16342_13189139 Bus1=16342-11105621c.1 Bus2=16342-11110972.1 LineCode=CND_M10_89_1F Length=114.30 Units=m
New Line.16342_13188582 Bus1=16342-11105020.1.2.3 Bus2=16342-11101388c.1.2.3 LineCode=CND_M30_33_3F Length=18.91 Units=m
New Line.16342_13188583 Bus1=16342-11105020.1.2.3 Bus2=16342-11101390.1.2.3 LineCode=CND_M30_33_3F Length=7.70 Units=m
New Line.16342_13188585 Bus1=16342-11105020.1.2.3 Bus2=16342-11110721.1.2.3 LineCode=CND_M30_33_3F Length=16.14 Units=m
New Line.16342_13188586 Bus1=16342-11103279.2 Bus2=16342-11114439.2 LineCode=CND_M10_89_1F Length=61.70 Units=m
New Line.16342_13188592 Bus1=16342-11117340.1.2.3 Bus2=16342-11107141.1.2.3 LineCode=CND_M30_30_3F Length=30.29 Units=m
New Line.16342_13188593 Bus1=16342-11123820.2 Bus2=16342-11110764.2 LineCode=CND_M10_89_1F Length=23.95 Units=m
New Line.25203_13188594 Bus1=25203-11098932.1.2.3 Bus2=25203-11098930.1.2.3 LineCode=CND_M30_42_3F Length=97.39 Units=m
New Line.16342_13188596 Bus1=16342-11101759.1.2.3 Bus2=16342-11109551.1.2.3 LineCode=CND_M30_30_3F Length=39.93 Units=m
New Line.25203_13188600 Bus1=25203-11105046.1.2.3 Bus2=25203-11123607.1.2.3 LineCode=CND_M30_89_3F Length=66.87 Units=m
New Line.25203_13188603 Bus1=25203-11117341.1.2.3 Bus2=25203-11120473.1.2.3 LineCode=CND_M30_89_3F Length=70.12 Units=m
New Line.25203_13188604 Bus1=25203-11120473.1.2.3 Bus2=25203-11105047.1.2.3 LineCode=CND_M30_89_3F Length=68.14 Units=m
New Line.25203_13188607 Bus1=25203-11120474.1.2.3 Bus2=25203-11114221.1.2.3 LineCode=CND_M30_89_3F Length=52.25 Units=m
New Line.25203_13188608 Bus1=25203-11114221c.1.2.3 Bus2=25203-11109247.1.2.3 LineCode=CND_M30_89_3F Length=186.93 Units=m
New Line.25203_13188609 Bus1=25203-11109247.1.2.3 Bus2=25203-11112505.1.2.3 LineCode=CND_M30_89_3F Length=30.32 Units=m
New Line.25203_13188610 Bus1=25203-11112505.1.2.3 Bus2=25203-11123608.1.2.3 LineCode=CND_M30_89_3F Length=52.01 Units=m
New Line.25203_13188611 Bus1=25203-11123608.1.2.3 Bus2=25203-11099784.1.2.3 LineCode=CND_M30_89_3F Length=54.11 Units=m
New Line.25203_13188612 Bus1=25203-11107872.1.2.3 Bus2=25203-11099785.1.2.3 LineCode=CND_M30_89_3F Length=62.21 Units=m
New Line.25203_13188613 Bus1=25203-11099785.1.2.3 Bus2=25203-11123614.1.2.3 LineCode=CND_M30_89_3F Length=44.30 Units=m
New Line.25203_13188614 Bus1=25203-11123614.1.2.3 Bus2=25203-11101749.1.2.3 LineCode=CND_M30_89_3F Length=107.37 Units=m
New Line.25203_13188545 Bus1=25203-11114229.1.2.3 Bus2=25203-11107872.1.2.3 LineCode=CND_M30_89_3F Length=73.43 Units=m
New Line.25203_13188548 Bus1=25203-11117393.1.2.3 Bus2=25203-11105053.1.2.3 LineCode=CND_M30_89_3F Length=90.19 Units=m
New Line.25203_13188549 Bus1=25203-11105053.1.2.3 Bus2=25203-11120483.1.2.3 LineCode=CND_M30_89_3F Length=68.71 Units=m
New Line.25203_13188550 Bus1=25203-11120483.1.2.3 Bus2=25203-11120484.1.2.3 LineCode=CND_M30_89_3F Length=107.54 Units=m
New Line.25203_13188552 Bus1=25203-11105054.1.2.3 Bus2=25203-11111026.1.2.3 LineCode=CND_M30_89_3F Length=78.94 Units=m
New Line.25203_13188553 Bus1=25203-11111026.1.2.3 Bus2=25203-11105055.1.2.3 LineCode=CND_M30_89_3F Length=113.37 Units=m
New Line.25203_13188554 Bus1=25203-11105055.1.2.3 Bus2=25203-11101753.1.2.3 LineCode=CND_M30_89_3F Length=104.98 Units=m
New Line.25203_13188555 Bus1=25203-11101753.1.2.3 Bus2=25203-11107877.1.2.3 LineCode=CND_M30_89_3F Length=85.66 Units=m
New Line.25203_13188557 Bus1=25203-11105056.1.2.3 Bus2=25203-11111027.1.2.3 LineCode=CND_M30_89_3F Length=45.81 Units=m
New Line.25203_13188558 Bus1=25203-11111027.1.2.3 Bus2=25203-11114231.1.2.3 LineCode=CND_M30_89_3F Length=110.25 Units=m
New Line.25203_13188559 Bus1=25203-11114231.1.2.3 Bus2=25203-11105057.1.2.3 LineCode=CND_M30_89_3F Length=89.48 Units=m
New Line.25203_13188565 Bus1=25203-11120485.1.2.3 Bus2=25203-11123616.1.2.3 LineCode=CND_M30_89_3F Length=104.73 Units=m
New Line.25203_13188566 Bus1=25203-11123616.1.2.3 Bus2=25203-11110948.1.2.3 LineCode=CND_M30_89_3F Length=98.08 Units=m
New Line.16342_13188571 Bus1=16342-11118861c.1.2.3 Bus2=16342-11123925.1.2.3 LineCode=CND_M30_33_3F Length=28.50 Units=m
New Line.16342_13188572 Bus1=16342-11120778.3 Bus2=16342-11104715.3 LineCode=CND_M10_89_1F Length=91.07 Units=m
New Line.16342_13188573 Bus1=16342-11100070.1.2.3 Bus2=16342-11101720.1.2.3 LineCode=CND_M30_40_3F Length=107.25 Units=m
New Line.16342_13188579 Bus1=16342-11101732.1.2.3 Bus2=16342-11120710.1.2.3 LineCode=CND_M30_33_3F Length=9.23 Units=m
New Line.16342_13188580 Bus1=16342-11101732.1.2.3 Bus2=16342-11117075.1.2.3 LineCode=CND_M30_33_3F Length=16.61 Units=m
New Line.16342_13188581 Bus1=16342-11101732.1.2.3 Bus2=16342-11123816.1.2.3 LineCode=CND_M30_33_3F Length=9.83 Units=m
New Line.16342_13188434 Bus1=16342-11100786.2 Bus2=16342-11107733.2 LineCode=CND_M10_89_1F Length=201.91 Units=m
New Line.16342_13188435 Bus1=16342-11104816.2 Bus2=16342-11120336.2 LineCode=CND_M10_89_1F Length=238.48 Units=m
New Line.16342_13188438 Bus1=16342-11120192c.3 Bus2=16342-11113950.3 LineCode=CND_M10_89_1F Length=40.76 Units=m
New Line.16342_13188439 Bus1=16342-11113950.3 Bus2=16342-11123316.3 LineCode=CND_M10_89_1F Length=27.39 Units=m
New Line.16342_13188296 Bus1=16342-11120815.2 Bus2=16342-11114136.2 LineCode=CND_M10_89_1F Length=117.85 Units=m
New Line.16342_13188299 Bus1=16342-11107699.2 Bus2=16342-11105088.2 LineCode=CND_M10_89_1F Length=50.59 Units=m
New Line.16342_13188300 Bus1=16342-11114056.2 Bus2=16342-11120708.2 LineCode=CND_M10_89_1F Length=61.62 Units=m
New Line.25203_13188301 Bus1=25203-11110130.1 Bus2=25203-11100784.1 LineCode=CND_M10_89_1F Length=213.73 Units=m
New Line.25203_13188309 Bus1=25203-11117168.3 Bus2=25203-11107731.3 LineCode=CND_M10_89_1F Length=175.64 Units=m
New Line.25203_13188310 Bus1=25203-11101352.1 Bus2=25203-11100779.1 LineCode=CND_M10_89_1F Length=193.24 Units=m
New Line.25203_13188348 Bus1=25203-11102069.2 Bus2=25203-11117194.2 LineCode=CND_M10_89_1F Length=202.92 Units=m
New Line.16342_13188370 Bus1=16342-11120336.2 Bus2=16342-11114089.2 LineCode=CND_M10_89_1F Length=99.13 Units=m
New Line.16342_13188371 Bus1=16342-11104818.2 Bus2=16342-11110909.2 LineCode=CND_M10_89_1F Length=281.75 Units=m
New Line.16342_13188373 Bus1=16342-11107743.2 Bus2=16342-11107755.2 LineCode=CND_M10_89_1F Length=143.25 Units=m
New Line.16342_13188374 Bus1=16342-11104886.2 Bus2=16342-11120377.2 LineCode=CND_M10_89_1F Length=246.31 Units=m
New Line.16342_13188378 Bus1=16342-11120345.2 Bus2=16342-11104898.2 LineCode=CND_M10_89_1F Length=90.80 Units=m
New Line.16342_13188379 Bus1=16342-11120345.2 Bus2=16342-11843082.2 LineCode=CND_M10_89_1F Length=96.99 Units=m
New Line.16342_13188380 Bus1=16342-11104900.2 Bus2=16342-11114135.2 LineCode=CND_M10_89_1F Length=136.97 Units=m
New Line.16342_13188381 Bus1=16342-11114135.2 Bus2=16342-11101701.2 LineCode=CND_M10_89_1F Length=108.17 Units=m
New Line.16342_13188382 Bus1=16342-11114103.2 Bus2=16342-11120348.2 LineCode=CND_M10_89_1F Length=168.07 Units=m
New Line.16342_13188387 Bus1=16342-11123506.2 Bus2=16342-11104904.2 LineCode=CND_M10_89_1F Length=242.31 Units=m
New Line.25203_13188390 Bus1=25203-11119156.3 Bus2=25203-11104795.3 LineCode=CND_M10_89_1F Length=244.02 Units=m
New Line.25203_13188391 Bus1=25203-11114672c.2 Bus2=25203-11101768.2 LineCode=CND_M10_89_1F Length=115.47 Units=m
New Line.25203_13188183 Bus1=25203-11120318.3 Bus2=25203-11101689.3 LineCode=CND_M10_89_1F Length=111.86 Units=m
New Line.25203_13188184 Bus1=25203-11101689.3 Bus2=25203-11117265.3 LineCode=CND_M10_89_1F Length=113.52 Units=m
New Line.25203_13188188 Bus1=25203-11101691.3 Bus2=25203-11107628.3 LineCode=CND_M10_89_1F Length=115.60 Units=m
New Line.25203_13188191 Bus1=25203-11123359.3 Bus2=25203-11101954.3 LineCode=CND_M10_89_1F Length=112.12 Units=m
New Line.25203_13188192 Bus1=25203-11110777.3 Bus2=25203-11117267.3 LineCode=CND_M10_89_1F Length=113.48 Units=m
New Line.25203_13188194 Bus1=25203-11123360.3 Bus2=25203-11120319.3 LineCode=CND_M10_89_1F Length=115.38 Units=m
New Line.25203_13188203 Bus1=25203-11104875.3 Bus2=25203-11114383.3 LineCode=CND_M10_89_1F Length=110.43 Units=m
New Line.25203_13188208 Bus1=25203-11117268.3 Bus2=25203-11117269.3 LineCode=CND_M10_89_1F Length=92.23 Units=m
New Line.25203_13188209 Bus1=25203-11117269.3 Bus2=25203-11117270.3 LineCode=CND_M10_89_1F Length=87.16 Units=m
New Line.25203_13188210 Bus1=25203-11117270.3 Bus2=25203-11114066.3 LineCode=CND_M10_89_1F Length=110.94 Units=m
New Line.25203_13188211 Bus1=25203-11114066.3 Bus2=25203-11104877.3 LineCode=CND_M10_89_1F Length=97.30 Units=m
New Line.25203_13188212 Bus1=25203-11104877.3 Bus2=25203-11101693.3 LineCode=CND_M10_89_1F Length=90.43 Units=m
New Line.25203_13188214 Bus1=25203-11104878.3 Bus2=25203-11114067.3 LineCode=CND_M10_89_1F Length=101.99 Units=m
New Line.25203_13188215 Bus1=25203-11114067.3 Bus2=25203-11114068.3 LineCode=CND_M10_89_1F Length=135.07 Units=m
New Line.25203_13188217 Bus1=25203-11117271.3 Bus2=25203-11123362.3 LineCode=CND_M10_89_1F Length=91.64 Units=m
New Line.25203_13188218 Bus1=25203-11123362.3 Bus2=25203-11101694.3 LineCode=CND_M10_89_1F Length=61.50 Units=m
New Line.25203_13188256 Bus1=25203-11101723.1 Bus2=25203-11107769.1 LineCode=CND_M10_89_1F Length=104.63 Units=m
New Line.25203_13188258 Bus1=25203-11111005.1 Bus2=25203-11104924.1 LineCode=CND_M10_89_1F Length=118.21 Units=m
New Line.25203_13188259 Bus1=25203-11117206.1 Bus2=25203-11123521.1 LineCode=CND_M10_89_1F Length=116.88 Units=m
New Line.25203_13188261 Bus1=25203-11107770.1 Bus2=25203-11117207.1 LineCode=CND_M10_89_1F Length=92.14 Units=m
New Line.25203_13188262 Bus1=25203-11117207.1 Bus2=25203-11117208.1 LineCode=CND_M10_89_1F Length=44.61 Units=m
New Line.25203_13188265 Bus1=25203-11120375.1 Bus2=25203-11101724.1 LineCode=CND_M10_89_1F Length=153.01 Units=m
New Line.25203_13188266 Bus1=25203-11101724.1 Bus2=25203-11104925.1 LineCode=CND_M10_89_1F Length=270.13 Units=m
New Line.25203_13188269 Bus1=25203-11104927.1 Bus2=25203-11111007.1 LineCode=CND_M10_89_1F Length=51.38 Units=m
New Line.25203_13188270 Bus1=25203-11111007.1 Bus2=25203-11107771.1 LineCode=CND_M10_89_1F Length=44.42 Units=m
New Line.25203_13188271 Bus1=25203-11107771.1 Bus2=25203-11111008.1 LineCode=CND_M10_89_1F Length=152.07 Units=m
New Line.25203_13188273 Bus1=25203-11123522.1 Bus2=25203-11101725.1 LineCode=CND_M10_89_1F Length=130.43 Units=m
New Line.25203_13188274 Bus1=25203-11101725.1 Bus2=25203-11101726.1 LineCode=CND_M10_89_1F Length=118.14 Units=m
New Line.25203_13188275 Bus1=25203-11101726.1 Bus2=25203-11107772.1 LineCode=CND_M10_89_1F Length=135.68 Units=m
New Line.25203_13188276 Bus1=25203-11107772.1 Bus2=25203-11114132.1 LineCode=CND_M10_89_1F Length=109.14 Units=m
New Line.25203_13188277 Bus1=25203-11114132.1 Bus2=25203-11123523.1 LineCode=CND_M10_89_1F Length=157.67 Units=m
New Line.25203_13188283 Bus1=25203-11101727.2 Bus2=25203-11104928.2 LineCode=CND_M10_89_1F Length=63.29 Units=m
New Line.25203_13188284 Bus1=25203-11104928.2 Bus2=25203-11101728.2 LineCode=CND_M10_89_1F Length=175.29 Units=m
New Line.25203_13188288 Bus1=25203-11101419.2 Bus2=25203-11102420.2 LineCode=CND_M10_89_1F Length=35.35 Units=m
New Line.16342_13188289 Bus1=16342-11103062.1.2.3 Bus2=16342-11104754.1.2.3 LineCode=CND_M30_40_3F Length=119.30 Units=m
New Line.16342_13188290 Bus1=16342-11104754.1.2.3 Bus2=16342-11108735.1.2.3 LineCode=CND_M30_40_3F Length=113.33 Units=m
New Line.25203_13188221 Bus1=25203-11100751.3 Bus2=25203-11110779.3 LineCode=CND_M10_89_1F Length=105.33 Units=m
New Line.25203_13188225 Bus1=25203-11104879.3 Bus2=25203-11102283.3 LineCode=CND_M10_89_1F Length=128.60 Units=m
New Line.25203_13188228 Bus1=25203-11120323.3 Bus2=25203-11114384.3 LineCode=CND_M10_89_1F Length=129.50 Units=m
New Line.25203_13188229 Bus1=25203-11123362.3 Bus2=25203-11104880.3 LineCode=CND_M10_89_1F Length=106.98 Units=m
New Line.25203_13188231 Bus1=25203-11110780.3 Bus2=25203-11123363.3 LineCode=CND_M10_89_1F Length=102.35 Units=m
New Line.25203_13188234 Bus1=25203-11100752.3 Bus2=25203-11100753.3 LineCode=CND_M10_89_1F Length=113.45 Units=m
New Line.25203_13188235 Bus1=25203-11100753.3 Bus2=25203-11104881.3 LineCode=CND_M10_89_1F Length=84.67 Units=m
New Line.25203_13188236 Bus1=25203-11104881.3 Bus2=25203-11114385.3 LineCode=CND_M10_89_1F Length=88.67 Units=m
New Line.16342_13188239 Bus1=16342-11108008.1.2.3 Bus2=16342-11098895.1.2.3 LineCode=CND_M30_30_3F Length=50.29 Units=m
New Line.25203_13188242 Bus1=25203-11098915.3 Bus2=25203-11113827.3 LineCode=CND_M10_89_1F Length=75.36 Units=m
New Line.25203_13188243 Bus1=25203-11101509c.3 Bus2=25203-11098915.3 LineCode=CND_M10_89_1F Length=36.41 Units=m
New Line.25203_13188246 Bus1=25203-11106087c.1.2.3 Bus2=25203-11115588.1.2.3 LineCode=CND_M30_42_3F Length=13.76 Units=m
New Line.16342_13188247 Bus1=16342-11106336.1.2.3 Bus2=16342-11100080.1.2.3 LineCode=CND_M30_30_3F Length=18.69 Units=m
New Line.25203_13188248 Bus1=25203-11101721c.1 Bus2=25203-11111004.1 LineCode=CND_M10_89_1F Length=144.12 Units=m
New Line.25203_13188250 Bus1=25203-11120374.1 Bus2=25203-11117649.1 LineCode=CND_M10_89_1F Length=68.98 Units=m
New Line.25203_13188252 Bus1=25203-11117205.1.2.3 Bus2=25203-11111250.1.2.3 LineCode=CND_M30_33_3F Length=51.21 Units=m
New Line.25203_13188255 Bus1=25203-11101722.1 Bus2=25203-11101723.1 LineCode=CND_M10_89_1F Length=123.22 Units=m
New Line.16342_13188146 Bus1=16342-11113988.2 Bus2=16342-11101679.2 LineCode=CND_M10_89_1F Length=110.70 Units=m
New Line.16342_13188148 Bus1=16342-11110884.2 Bus2=16342-11104865.2 LineCode=CND_M10_89_1F Length=122.86 Units=m
New Line.16342_13188149 Bus1=16342-11104865.2 Bus2=16342-11110885.2 LineCode=CND_M10_89_1F Length=113.30 Units=m
New Line.25203_13188158 Bus1=25203-11110888.3 Bus2=25203-11107625.3 LineCode=CND_M10_89_1F Length=97.60 Units=m
New Line.25203_13188160 Bus1=25203-11113993.3 Bus2=25203-11113994.3 LineCode=CND_M10_89_1F Length=63.53 Units=m
New Line.25203_13188161 Bus1=25203-11113994.3 Bus2=25203-11113995.3 LineCode=CND_M10_89_1F Length=111.14 Units=m
New Line.25203_13188162 Bus1=25203-11113995.3 Bus2=25203-11110890.3 LineCode=CND_M10_89_1F Length=105.86 Units=m
New Line.25203_13188163 Bus1=25203-11110890.3 Bus2=25203-11104870.3 LineCode=CND_M10_89_1F Length=112.50 Units=m
New Line.25203_13188164 Bus1=25203-11104870.3 Bus2=25203-11110776.3 LineCode=CND_M10_89_1F Length=113.79 Units=m
New Line.25203_13188166 Bus1=25203-11113996.3 Bus2=25203-11110777.3 LineCode=CND_M10_89_1F Length=114.82 Units=m
New Line.25203_13188167 Bus1=25203-11110777.3 Bus2=25203-11101686.3 LineCode=CND_M10_89_1F Length=57.88 Units=m
New Line.25203_13188168 Bus1=25203-11101686c.3 Bus2=25203-11120315.3 LineCode=CND_M10_89_1F Length=116.48 Units=m
New Line.25203_13188170 Bus1=25203-11107626.3 Bus2=25203-11123358.3 LineCode=CND_M10_89_1F Length=108.46 Units=m
New Line.25203_13188178 Bus1=25203-11117264.3 Bus2=25203-11107627.3 LineCode=CND_M10_89_1F Length=96.81 Units=m
New Line.25203_13188180 Bus1=25203-11113997.3 Bus2=25203-11120317.3 LineCode=CND_M10_89_1F Length=111.00 Units=m
New Line.25203_13188181 Bus1=25203-11120317.3 Bus2=25203-11101688.3 LineCode=CND_M10_89_1F Length=112.29 Units=m
New Line.25203_13188118 Bus1=25203-11100747.2 Bus2=25203-11117545.2 LineCode=CND_M10_89_1F Length=107.82 Units=m
New Line.16342_13188119 Bus1=16342-11100748.2 Bus2=16342-11123350.2 LineCode=CND_M10_89_1F Length=109.82 Units=m
New Line.16342_13188120 Bus1=16342-11123350c.2 Bus2=16342-11100749.2 LineCode=CND_M10_89_1F Length=118.02 Units=m
New Line.16342_13188121 Bus1=16342-11100749.2 Bus2=16342-11113983.2 LineCode=CND_M10_89_1F Length=110.01 Units=m
New Line.16342_13188123 Bus1=16342-11110878c.2 Bus2=16342-11117546.2 LineCode=CND_M10_89_1F Length=82.42 Units=m
New Line.16342_13188124 Bus1=16342-11110878.2 Bus2=16342-11100750.2 LineCode=CND_M10_89_1F Length=116.05 Units=m
New Line.16342_13188130 Bus1=16342-11113988c.2 Bus2=16342-11117146.2 LineCode=CND_M10_89_1F Length=82.21 Units=m
New Line.16342_13188131 Bus1=16342-11117146.2 Bus2=16342-11110880.2 LineCode=CND_M10_89_1F Length=91.40 Units=m
New Line.16342_13188132 Bus1=16342-11110880.2 Bus2=16342-11123827.2 LineCode=CND_M10_89_1F Length=103.03 Units=m
New Line.16342_13188136 Bus1=16342-11101680.2 Bus2=16342-11113989.2 LineCode=CND_M10_89_1F Length=113.39 Units=m
New Line.16342_13188137 Bus1=16342-11113989.2 Bus2=16342-11110882.2 LineCode=CND_M10_89_1F Length=109.97 Units=m
New Line.16342_13188142 Bus1=16342-11101681.2 Bus2=16342-11117147.2 LineCode=CND_M10_89_1F Length=138.98 Units=m
New Line.16342_13188143 Bus1=16342-11117147c.2 Bus2=16342-11104864.2 LineCode=CND_M10_89_1F Length=63.76 Units=m
New Line.16342_13188144 Bus1=16342-11104864.2 Bus2=16342-11111245.2 LineCode=CND_M10_89_1F Length=64.83 Units=m
New Line.25203_13188038 Bus1=25203-11104868.3 Bus2=25203-11101685.3 LineCode=CND_M10_89_1F Length=90.72 Units=m
New Line.25203_13188039 Bus1=25203-11101685.3 Bus2=25203-11123357.3 LineCode=CND_M10_89_1F Length=131.54 Units=m
New Line.16342_13188040 Bus1=16342-11114046c.3 Bus2=16342-11120813.3 LineCode=CND_M10_89_1F Length=98.59 Units=m
New Line.16342_13188041 Bus1=16342-11114046.3 Bus2=16342-11117129.3 LineCode=CND_M10_89_1F Length=183.78 Units=m
New Line.16342_13188042 Bus1=16342-11117129.3 Bus2=16342-11110757.3 LineCode=CND_M10_89_1F Length=24.43 Units=m
New Line.16342_13188048 Bus1=16342-11123331c.3 Bus2=16342-11102279.3 LineCode=CND_M10_89_1F Length=43.85 Units=m
New Line.16342_13188049 Bus1=16342-11123331.3 Bus2=16342-11101673.3 LineCode=CND_M10_89_1F Length=93.92 Units=m
...
